3
Coordinates from ORCA-job runs\water\inputs\water E -76.320956869719
  O       0.000000      0.000000      0.000000
  H       0.757000      0.586000      0.000000
  H      -0.757000      0.586000      0.000000
3
Coordinates from ORCA-job runs\water\inputs\water E -76.321133778205
  O      -0.000000     -0.005848      0.000000
  H       0.761712      0.588924      0.000000
  H      -0.761712      0.588924      0.000000
3
Coordinates from ORCA-job runs\water\inputs\water E -76.321150289569
  O      -0.000000     -0.008230      0.000000
  H       0.759561      0.590115      0.000000
  H      -0.759561      0.590115      0.000000
3
Coordinates from ORCA-job runs\water\inputs\water E -76.321155484654
  O      -0.000000     -0.010038      0.000000
  H       0.757410      0.591019      0.000000
  H      -0.757410      0.591019      0.000000
3
Coordinates from ORCA-job runs\water\inputs\water E -76.321155480372
  O      -0.000000     -0.010014      0.000000
  H       0.757393      0.591007      0.000000
  H      -0.757393      0.591007      0.000000
