5
Coordinates from ORCA-job /home/jonathan/moleculas_orca_project/runs/methane/inputs/methane E -40.451683572707
  C       0.000000      0.000000      0.000000
  H       0.629118      0.629118      0.629118
  H      -0.629118     -0.629118      0.629118
  H      -0.629118      0.629118     -0.629118
  H       0.629118     -0.629118     -0.629118
5
Coordinates from ORCA-job /home/jonathan/moleculas_orca_project/runs/methane/inputs/methane E -40.451935747887
  C       0.000000     -0.000000     -0.000000
  H       0.634854      0.634854      0.634854
  H      -0.634854     -0.634854      0.634854
  H      -0.634854      0.634854     -0.634854
  H       0.634854     -0.634854     -0.634854
5
Coordinates from ORCA-job /home/jonathan/moleculas_orca_project/runs/methane/inputs/methane E -40.451937109253
  C       0.000000      0.000000     -0.000000
  H       0.634909      0.634909      0.634909
  H      -0.634909     -0.634909      0.634909
  H      -0.634909      0.634909     -0.634909
  H       0.634909     -0.634909     -0.634909
