5
Coordinates from ORCA-job /home/jonathan/moleculas_orca_project/runs/methane/inputs/methane E -40.451937109253
  C           0.00000000688668      0.00000002030909     -0.00000002070729
  H           0.63490897239651      0.63490896813659      0.63490897295982
  H          -0.63490893126948     -0.63490893960591      0.63490888970423
  H          -0.63490890841285      0.63490886202436     -0.63490892392095
  H           0.63490886039915     -0.63490891086413     -0.63490891803581
