5
Coordinates from ORCA-job runs\methane\inputs\methane E -40.451562371582
  C       0.000000      0.000000      0.000000
  H       0.629118      0.629118      0.629118
  H      -0.629118     -0.629118      0.629118
  H      -0.629118      0.629118     -0.629118
  H       0.629118     -0.629118     -0.629118
5
Coordinates from ORCA-job runs\methane\inputs\methane E -40.451815099954
  C       0.000000      0.000000     -0.000000
  H       0.634840      0.634840      0.634840
  H      -0.634840     -0.634840      0.634840
  H      -0.634840      0.634840     -0.634840
  H       0.634840     -0.634840     -0.634840
5
Coordinates from ORCA-job runs\methane\inputs\methane E -40.451815117773
  C       0.000000      0.000000     -0.000000
  H       0.634903      0.634903      0.634903
  H      -0.634903     -0.634903      0.634903
  H      -0.634903      0.634903     -0.634903
  H       0.634903     -0.634903     -0.634903
